/*---------------------------------------------------------------------------*\
| =========                 |                                                 |
| \\      /  F ield         | OpenFOAM: The Open Source CFD Toolbox           |
|  \\    /   O peration     | Version:  1.4                                   |
|   \\  /    A nd           | Web:      http://www.openfoam.org               |
|    \\/     M anipulation  |                                                 |
\*---------------------------------------------------------------------------*/

FoamFile
{
  version         2.0;
  format          ascii;
  root            "";
  case            "";
  instance        "";
  local           "";
  class           dictionary;
  object          couplingProperties;
}

/* ---------------------------- sub-models & settings ---------------------------- */

modelType Bfull; // A or Bfull or B

couplingInterval 50;

expandedCellScale 8;

useGuoBBOEquation true;

allowUseSubCFDTimeStep false;

globalForce mixGlobalForce;

useDDtVoidFraction true;

forceModels
(
  Archimedes
  mixDragForce
  mixGradPForce
  mixViscForce
);

momCoupleModels
(
  implicitCouple
  explicitCouple
);

voidFractionModel mix;

locateModel engineMix;

meshMotionModel noMeshMotion;

dataExchangeModel twoWayMPI;

averagingModel dense;

turbulenceModelType turbulenceProperties;

/* ---------------------------- sub-model properties ------------------------- */

implicitCoupleProps
{
  velFieldName "U";
  granVelFieldName "Us";
  voidFractionFieldName "voidFraction";
}

explicitCoupleProps
{
  expForceLimit (1e10 1e10 1e10);
}

"(globalForceProps|mixGlobalForceProps)"
{
  GaussCoreEff 3;
  verbose true;
  velFieldName "U";
  voidFractionFieldName "voidFraction";
  gravityFieldName "g";
}

ArchimedesProps
{
  treatForceExplicitInMomEquation true;
  treatForceBothCFDAndDEM false;
  treatDEMForceImplicit false;
  verbose true;
  interpolation false;
  scalarViscosity false;
}

mixDragForceProps
{
  dragModelName "Dallavalle";
  treatForceExplicitInMomEquation false;
  treatForceBothCFDAndDEM true;
  treatDEMForceImplicit false;
  verbose true;
  interpolation false;
  scalarViscosity false;
  useGaussCoreFunctionRefined true;
}

mixGradPForceProps
{
  treatForceExplicitInMomEquation true;
  treatForceBothCFDAndDEM true; // false (A model)
  treatDEMForceImplicit false;
  verbose true;
  useGaussCoreFunctionRefined true;
}

mixViscForceProps
{
  treatForceExplicitInMomEquation true;
  treatForceBothCFDAndDEM true; // false (A model)
  treatDEMForceImplicit false;
  verbose true;
  useGaussCoreFunctionRefined true;
}

twoWayMPIProps
{
  liggghtsPath "../DEM/in.liggghts_run";
}

mixProps
{
  alphaMin 0.3;
  scaleUpVol 1.0;
  useGuassVoidFractionForMiddleParticle true;
  GaussKernelBandWidth 0.03;
  GaussKernelScale 2.0;
}

engineMixProps
{
  verbose true;
  treeSearch true;
  zSplit 8;
  xySplit 16;
}
