/*---------------------------------------------------------------------------*\
| =========                 |                                                 |
| \\      /  F ield         | OpenFOAM: The Open Source CFD Toolbox           |
|  \\    /   O peration     | Version:  1.4                                   |
|   \\  /    A nd           | Web:      http://www.openfoam.org               |
|    \\/     M anipulation  |                                                 |
\*---------------------------------------------------------------------------*/
FoamFile
{
    version         2.0;
    format          ascii;
    root            "";
    case            "";
    instance        "";
    local           "";
    class           dictionary;
    object          couplingProperties;
}

/* ---------------------------- sub-models & settings ---------------------------- */

modelType A;

couplingInterval 100;

expandedCellScale 6;

allowUseSubCFDTimeStep false;

globalForce mixGlobalForce;

minCoarseParticleRadius 0.009;

refineMeshSkin 1.2;

useGuoBBOEquation false;

useDDtVoidFraction true;

forceModels
(
  ArchimedesIB
  ShirgaonkarIB
  Archimedes
  mixDragForce
  // mixGradPForce
  // mixViscForce
);

momCoupleModels
(
  implicitCouple
  explicitCouple
);

voidFractionModel mix;

locateModel engineMix;

dataExchangeModel twoWayMPI;

averagingModel dense;

turbulenceModelType turbulenceProperties;

/* ---------------------------- sub-model properties ------------------------- */

implicitCoupleProps
{
  velFieldName "U";
  granVelFieldName "Us";
  voidFractionFieldName "voidFraction";
}

explicitCoupleProps
{
  expForceLimit (2e10 2e10 2e10);
}

"(globalForceProps|mixGlobalForceProps)"
{
  verbose true;
  GaussCoreEff 3;
  velFieldName "U";
  voidFractionFieldName "voidFraction";
  volumeFractionFieldName "volumeFraction";
  gravityFieldName "g";
}

ArchimedesIBProps
{
  verbose true;
}

ShirgaonkarIBProps
{
  useTorque true;
  verbose true;
}

ArchimedesProps
{
  treatForceExplicitInMomEquation false;
  treatForceBothCFDAndDEM false;
  treatDEMForceImplicit false;
  verbose true;
}

mixDragForceProps
{
  dragModelName "Gidaspow";
  treatForceExplicitInMomEquation false;
  treatForceBothCFDAndDEM true;
  treatDEMForceImplicit false;
  verbose true;
  interpolation false;
  scalarViscosity false;
  useGaussCoreFunctionRefined true;
}

mixGradPForceProps
{
  treatForceExplicitInMomEquation true;
  treatForceBothCFDAndDEM false; // false (A model)
  treatDEMForceImplicit false;
  verbose true;
  interpolation false;
  useGaussCoreFunctionRefined true;
}

mixViscForceProps
{
  treatForceExplicitInMomEquation true;
  treatForceBothCFDAndDEM false; // false (A model)
  treatDEMForceImplicit false;
  verbose true;
  interpolation false;
  useGaussCoreFunctionRefined true;
}

twoWayMPIProps
{
  liggghtsPath "../DEM/in.run";
}

mixProps
{
  alphaMin 0.3;
  scaleUpVol 1.0;
  maxCellsNumPerCoarseParticle 10000000;
}

engineMixProps
{
  verbose true;
  treeSearch true;
  zSplit 8;
  xySplit 16;
}
