/*--------------------------------*- C++ -*----------------------------------*\
| =========                 |                                                 |
| \\      /  F ield         | OpenFOAM: The Open Source CFD Toolbox           |
|  \\    /   O peration     | Version:  1.6                                   |
|   \\  /    A nd           | Web:      www.OpenFOAM.org                      |
|    \\/     M anipulation  |                                                 |
\*---------------------------------------------------------------------------*/
FoamFile
{
    version     2.0;
    format      ascii;
    class       dictionary;
    location    "system";
    object      controlDict;
}
// * * * * * * * * * * * * * * * * * * * * * * * * * * * * * * * * * * * * * //

application     mspCfdemSolverSemi;

startFrom       startTime;

startTime       0;

stopAt          endTime;

endTime         1;

deltaT          0.0005;

writeControl    adjustableRunTime;

writeInterval   0.02;

purgeWrite      0;

writeFormat     ascii;

writePrecision  10;

writeCompression uncompressed;

timeFormat      general;

timePrecision   10;

runTimeModifiable off;

adjustTimeStep  no;

maxCo           1;

maxDeltaT       1;

functions
{
    volFlow_outlet
    {
        type            surfaceFieldValue;
        functionObjectLibs ("libfieldFunctionObjects.so");
        writeControl   timeStep;
        writeInterval  1;
        log             true;
        writeFields     false;
        valueOutput     false;
        regionType      patch;
        name            outlet;
        operation       sum;
        fields
        (
            phi
        );
    }
}