/*---------------------------------------------------------------------------*\
| =========                 |                                                 |
| \\      /  F ield         | OpenFOAM: The Open Source CFD Toolbox           |
|  \\    /   O peration     | Version:  1.4                                   |
|   \\  /    A nd           | Web:      http://www.openfoam.org               |
|    \\/     M anipulation  |                                                 |
\*---------------------------------------------------------------------------*/
FoamFile
{
    version         2.0;
    format          ascii;
    root            "";
    case            "";
    instance        "";
    local           "";
    class           dictionary;
    object          couplingProperties;
}

/* ---------------------------- sub-models & settings ---------------------------- */

modelType none;

couplingInterval 5;

allowUseSubCFDTimeStep false;

globalForce globalForce;

forceModels
(
    ArchimedesIB
    ShirgaonkarIB
);

voidFractionModel IB;

locateModel engineIB;

dataExchangeModel twoWayMPI;

turbulenceModelType turbulenceProperties;

/* ---------------------------- sub-model properties ------------------------- */

"(globalForceProps|mixGlobalForceProps)"
{
  velFieldName "U";
  volumeFractionFieldName "volumeFraction";
  gravityFieldName "g";
}

ShirgaonkarIBProps
{
    verbose true;
}

ArchimedesIBProps
{
    verbose true;
}

twoWayMPIProps
{
    liggghtsPath "../DEM/in.liggghts_run";
}

IBProps
{
    maxCellsNumPerCoarseParticle 10000000;
}

engineIBProps
{
    treeSearch false;
    zSplit 8;
    xySplit 16;
}
