/*---------------------------------------------------------------------------*\
| =========                 |                                                 |
| \\      /  F ield         | OpenFOAM: The Open Source CFD Toolbox           |
|  \\    /   O peration     | Version:  1.4                                   |
|   \\  /    A nd           | Web:      http://www.openfoam.org               |
|    \\/     M anipulation  |                                                 |
\*---------------------------------------------------------------------------*/
FoamFile
{
    version         2.0;
    format          ascii;
    root            "";
    case            "";
    instance        "";
    local           "";
    class           dictionary;
    object          couplingProperties;
}

/* ---------------------------- sub-models & settings ---------------------------- */

modelType none;

couplingInterval 50;

refineMeshSkin 1.2;

globalForce mixGlobalForce;

minCoarseParticleRadius 0.009;

useGuoBBOEquation false;

useDDtVoidFraction true;

forceModels
(
  ArchimedesIB
  ShirgaonkarIB
);

momCoupleModels
(
  implicitCouple
);

voidFractionModel mix;

locateModel engineMix;

dataExchangeModel twoWayMPI;

turbulenceModelType turbulenceProperties;

/* ---------------------------- sub-model properties ------------------------- */

implicitCoupleProps
{
  velFieldName "U";
  granVelFieldName "Us";
  voidFractionFieldName "voidFraction";
}

"(globalForceProps|mixGlobalForceProps)"
{
  verbose true;
  GaussCoreEff 3;
  velFieldName "U";
  voidFractionFieldName "voidFraction";
  volumeFractionFieldName "volumeFraction";
  gravityFieldName "g";
}

ArchimedesIBProps
{
  verbose true;
}

ShirgaonkarIBProps
{
  useTorque true;
  verbose true;
}

twoWayMPIProps
{
  liggghtsPath "../DEM/in.run";
}

mixProps
{
  alphaMin 0.3;
  maxCellsNumPerCoarseParticle 10000000;
  verbose true;
}

engineMixProps
{
  verbose true;
  treeSearch true;
  zSplit 8;
  xySplit 16;
}
