/*---------------------------------------------------------------------------*\
| =========                 |                                                 |
| \\      /  F ield         | OpenFOAM: The Open Source CFD Toolbox           |
|  \\    /   O peration     | Version:  1.4                                   |
|   \\  /    A nd           | Web:      http://www.openfoam.org               |
|    \\/     M anipulation  |                                                 |
\*---------------------------------------------------------------------------*/

FoamFile
{
  version         2.0;
  format          ascii;
  root            "";
  case            "";
  instance        "";
  local           "";
  class           dictionary;
  object          couplingProperties;
}

/* ---------------------------- sub-models & settings ---------------------------- */

modelType B; // A or B

couplingInterval 100;

// 如果耦合时间间隔 > CFD 时间步，那么允许在一个耦合时间步中存在多个 CFD 时间步
allowUseSubCFDTimeStep true;

forceModels
(
  Archimedes
  DiFeliceDrag
);

momCoupleModels
(
  implicitCouple
);

voidFractionModel divided; // centre; bigParticle;

locateModel engine;

meshMotionModel noMeshMotion;

dataExchangeModel twoWayMPI;

averagingModel dense;

turbulenceModelType turbulenceProperties;

/* ---------------------------- sub-model properties ------------------------- */

implicitCoupleProps
{
  velFieldName "U";
  granVelFieldName "Us";
  voidFractionFieldName "voidFraction";
}

DiFeliceDragProps
{
  velFieldName "U";
  granVelFieldName "Us";
  voidFractionFieldName "voidFraction";
  treatForceExplicitInMomEquation false;
  treatForceBothCFDAndDEM true;
  treatDEMForceImplicit false;
  verbose true;
  interpolation false;
  // scalarViscosity true;
  // nu [0 2 -1 0 0 0 0] 1e-04;
}

ArchimedesProps
{
  densityFieldName "rho";
  gravityFieldName "g";
}

twoWayMPIProps
{
  liggghtsPath "../DEM/in.liggghts_run";
}

dividedProps
{
  alphaMin 0.3;
  scaleUpVol 1.0;
}

centreProps
{
  alphaMin 0.30;
}

bigParticleProps
{
  maxCellsPerParticle 1000;
  alphaMin 0.30;
  scaleUpVol 1.0;
}

engineProps
{
  treeSearch false;
}
