/*-------------------------------*- C++ -*---------------------------------*\
|    =========                                                              |
|    \\      /     OpenFOAM                                                 |
|     \\    /                                                               |
|      \\  /       The Open Source CFD Toolbox                              |
|       \\/                                        http://www.OpenFOAM.org  |
\*-------------------------------------------------------------------------*/
FoamFile
{
  version     2.0;
  format      ascii;
  class       dictionary;
  note        "mesh decomposition control dictionary";
  location    "system";
  object      decomposeParDict;
}

numberOfSubdomains  12;

method        simple; // hierarchical or scotch or metis or manual

simpleCoeffs
{
  n           (2 2 3);
  delta       0.001;
}

hierarchicalCoeffs
{
  n           (2 2 1);
  delta       0.001;
  order       xyz;
}

metisCoeffs
{
  processorWeights
  (
    1
    1
    1
    1
  );
}

manualCoeffs
{
  dataFile    "decompositionData";
}
